Input Parameters:
   integrator                     = md
   tinit                          = 0
   dt                             = 0.001
   nsteps                         = 100000
   init-step                      = 0
   simulation-part                = 1
   comm-mode                      = Linear
   nstcomm                        = 100
   bd-fric                        = 0
   ld-seed                        = -1218552658
   emtol                          = 10
   emstep                         = 0.01
   niter                          = 20
   fcstep                         = 0
   nstcgsteep                     = 1000
   nbfgscorr                      = 10
   rtpi                           = 0.05
   nstxout                        = 500
   nstvout                        = 500
   nstfout                        = 0
   nstlog                         = 500
   nstcalcenergy                  = 100
   nstenergy                      = 500
   nstxout-compressed             = 0
   compressed-x-precision         = 1000
   cutoff-scheme                  = Verlet
   nstlist                        = 10
   ns-type                        = Grid
   pbc                            = xyz
   periodic-molecules             = false
   verlet-buffer-tolerance        = 0.005
   rlist                          = 1.3
   coulombtype                    = PME
   coulomb-modifier               = Potential-shift
   rcoulomb-switch                = 0
   rcoulomb                       = 1.3
   epsilon-r                      = 1
   epsilon-rf                     = inf
   vdw-type                       = Cut-off
   vdw-modifier                   = Potential-shift
   rvdw-switch                    = 0
   rvdw                           = 1.3
   DispCorr                       = EnerPres
   table-extension                = 1
   fourierspacing                 = 0.16
   fourier-nx                     = 25
   fourier-ny                     = 25
   fourier-nz                     = 25
   pme-order                      = 4
   ewald-rtol                     = 1e-05
   ewald-rtol-lj                  = 0.001
   lj-pme-comb-rule               = Geometric
   ewald-geometry                 = 0
   epsilon-surface                = 0
   implicit-solvent               = No
   gb-algorithm                   = Still
   nstgbradii                     = 1
   rgbradii                       = 1
   gb-epsilon-solvent             = 80
   gb-saltconc                    = 0
   gb-obc-alpha                   = 1
   gb-obc-beta                    = 0.8
   gb-obc-gamma                   = 4.85
   gb-dielectric-offset           = 0.009
   sa-algorithm                   = Ace-approximation
   sa-surface-tension             = 2.05016
   tcoupl                         = V-rescale
   nsttcouple                     = 10
   nh-chain-length                = 0
   print-nose-hoover-chain-variables = false
   pcoupl                         = Berendsen
   pcoupltype                     = Isotropic
   nstpcouple                     = 10
   tau-p                          = 2
   compressibility (3x3):
      compressibility[    0]={ 4.50000e-05,  0.00000e+00,  0.00000e+00}
      compressibility[    1]={ 0.00000e+00,  4.50000e-05,  0.00000e+00}
      compressibility[    2]={ 0.00000e+00,  0.00000e+00,  4.50000e-05}
   ref-p (3x3):
      ref-p[    0]={ 1.00000e+00,  0.00000e+00,  0.00000e+00}
      ref-p[    1]={ 0.00000e+00,  1.00000e+00,  0.00000e+00}
      ref-p[    2]={ 0.00000e+00,  0.00000e+00,  1.00000e+00}
   refcoord-scaling               = COM
   posres-com (3):
      posres-com[0]= 0.00000e+00
      posres-com[1]= 0.00000e+00
      posres-com[2]= 0.00000e+00
   posres-comB (3):
      posres-comB[0]= 0.00000e+00
      posres-comB[1]= 0.00000e+00
      posres-comB[2]= 0.00000e+00
   QMMM                           = false
   QMconstraints                  = 0
   QMMMscheme                     = 0
   MMChargeScaleFactor            = 1
qm-opts:
   ngQM                           = 0
   constraint-algorithm           = Lincs
   continuation                   = true
   Shake-SOR                      = false
   shake-tol                      = 0.0001
   lincs-order                    = 4
   lincs-iter                     = 1
   lincs-warnangle                = 30
   nwall                          = 0
   wall-type                      = 9-3
   wall-r-linpot                  = -1
   wall-atomtype[0]               = -1
   wall-atomtype[1]               = -1
   wall-density[0]                = 0
   wall-density[1]                = 0
   wall-ewald-zfac                = 3
   pull                           = false
   awh                            = false
   rotation                       = false
   interactiveMD                  = false
   disre                          = No
   disre-weighting                = Conservative
   disre-mixed                    = false
   dr-fc                          = 1000
   dr-tau                         = 0
   nstdisreout                    = 100
   orire-fc                       = 0
   orire-tau                      = 0
   nstorireout                    = 100
   free-energy                    = no
   cos-acceleration               = 0
   deform (3x3):
      deform[    0]={ 0.00000e+00,  0.00000e+00,  0.00000e+00}
      deform[    1]={ 0.00000e+00,  0.00000e+00,  0.00000e+00}
      deform[    2]={ 0.00000e+00,  0.00000e+00,  0.00000e+00}
   simulated-tempering            = false
   swapcoords                     = no
   userint1                       = 0
   userint2                       = 0
   userint3                       = 0
   userint4                       = 0
   userreal1                      = 0
   userreal2                      = 0
   userreal3                      = 0
   userreal4                      = 0
   applied-forces:
     electric-field:
       x:
         E0                       = 0
         omega                    = 0
         t0                       = 0
         sigma                    = 0
       y:
         E0                       = 0
         omega                    = 0
         t0                       = 0
         sigma                    = 0
       z:
         E0                       = 0
         omega                    = 0
         t0                       = 0
         sigma                    = 0
grpopts:
   nrdf:      761.85     14441.2
   ref-t:         300         300
   tau-t:         0.1         0.1
annealing:          No          No
annealing-npoints:           0           0
   acc:	           0           0           0
   nfreeze:           N           N           N
   energygrp-flags[  0]: 0

Changing nstlist from 10 to 100, rlist from 1.3 to 1.394

Initializing Domain Decomposition on 6 ranks
Dynamic load balancing: locked
Minimum cell size due to atom displacement: 0.455 nm
Initial maximum inter charge-group distances:
    two-body bonded interactions: 0.401 nm, LJ-14, atoms 38 59
  multi-body bonded interactions: 0.401 nm, Proper Dih., atoms 38 59
Minimum cell size due to bonded interactions: 0.441 nm
Maximum distance for 5 constraints, at 120 deg. angles, all-trans: 0.218 nm
Estimated maximum distance required for P-LINCS: 0.218 nm
Using 0 separate PME ranks, as there are too few total
 ranks for efficient splitting
Scaling the initial minimum size with 1/0.8 (option -dds) = 1.25
Optimizing the DD grid for 6 cells with a minimum initial size of 0.569 nm
The maximum allowed number of cells is: X 7 Y 7 Z 7
Domain decomposition grid 6 x 1 x 1, separate PME ranks 0
PME domain decomposition: 6 x 1 x 1
Domain decomposition rank 0, coordinates 0 0 0

The initial number of communication pulses is: X 3
The initial domain decomposition cell size is: X 0.66 nm

The maximum allowed distance for charge groups involved in interactions is:
                 non-bonded interactions           1.394 nm
(the following are initial values, they could change due to box deformation)
            two-body bonded interactions  (-rdd)   1.394 nm
          multi-body bonded interactions  (-rdd)   0.665 nm
  atoms separated by up to 5 constraints  (-rcon)  0.665 nm

When dynamic load balancing gets turned on, these settings will change to:
The maximum number of communication pulses is: X 3
The minimum size for domain decomposition cells is 0.532 nm
The requested allowed shrink of DD cells (option -dds) is: 0.80
The allowed shrink of domain decomposition cells is: X 0.80
The maximum allowed distance for charge groups involved in interactions is:
                 non-bonded interactions           1.394 nm
            two-body bonded interactions  (-rdd)   1.394 nm
          multi-body bonded interactions  (-rdd)   0.532 nm
  atoms separated by up to 5 constraints  (-rcon)  0.532 nm

Using 6 MPI processes
Using 1 OpenMP thread per MPI process

Non-default thread affinity set probably by the OpenMP library,
disabling internal thread affinity
System total charge: 0.000
Will do PME sum in reciprocal space for electrostatic interactions.

Using a Gaussian width (1/beta) of 0.416211 nm for Ewald
Potential shift: LJ r^-12: -4.292e-02 r^-6: -2.072e-01, Ewald -7.692e-06
Initialized non-bonded Ewald correction tables, spacing: 1.06e-03 size: 1224

Long Range LJ corr.: <C6> 2.9812e-04
Generated table with 1197 data points for Ewald.
Tabscale = 500 points/nm
Generated table with 1197 data points for LJ6.
Tabscale = 500 points/nm
Generated table with 1197 data points for LJ12.
Tabscale = 500 points/nm
Generated table with 1197 data points for 1-4 COUL.
Tabscale = 500 points/nm
Generated table with 1197 data points for 1-4 LJ6.
Tabscale = 500 points/nm
Generated table with 1197 data points for 1-4 LJ12.
Tabscale = 500 points/nm

Using SIMD 4x8 nonbonded short-range kernels

Using a dual 4x8 pair-list setup updated with dynamic pruning:
  outer list: updated every 100 steps, buffer 0.094 nm, rlist 1.394 nm
  inner list: updated every  24 steps, buffer 0.001 nm, rlist 1.301 nm
At tolerance 0.005 kJ/mol/ps per atom, equivalent classical 1x1 list would be:
  outer list: updated every 100 steps, buffer 0.225 nm, rlist 1.525 nm
  inner list: updated every  24 steps, buffer 0.049 nm, rlist 1.349 nm

Using Lorentz-Berthelot Lennard-Jones combination rule

Initializing Parallel LINear Constraint Solver

The number of constraints is 4276
There are inter charge-group constraints,
will communicate selected coordinates each lincs iteration

Linking all bonded interactions to atoms

Intra-simulation communication will occur every 10 steps.
Center of mass motion removal mode is Linear
We have the following groups for center of mass motion removal:
  0:  rest

There are: 6494 Atoms
Atom distribution over 6 domains: av 1082 stddev 29 min 1064 max 1096

Started mdrun on rank 0 Thu Mar 19 15:45:15 2020
           Step           Time
              0        0.00000

   Energies (kJ/mol)
           Bond          Angle    Proper Dih.  Improper Dih.          LJ-14
    2.08003e+02    4.89451e+03    8.33423e+02    4.35236e+01    2.89273e+02
     Coulomb-14        LJ (SR)  Disper. corr.   Coulomb (SR)   Coul. recip.
    3.62309e+03    1.62942e+04   -3.77540e+02   -1.20077e+05    2.40790e+02
      Potential    Kinetic En.   Total Energy  Conserved En.    Temperature
   -9.40279e+04    2.97450e+04   -6.42829e+04   -6.21627e+04    4.70630e+02
   -9.88450e+01   -4.71769e+04    9.96255e-07

	<====  A V E R A G E S  ====>

	Statistics over 100001 steps using 1001 frames

   Energies (kJ/mol)
           Bond          Angle    Proper Dih.  Improper Dih.          LJ-14
    2.39981e+02    4.83752e+03    8.26563e+02    3.65661e+01    2.83406e+02
     Coulomb-14        LJ (SR)  Disper. corr.   Coulomb (SR)   Coul. recip.
    3.64124e+03    1.27653e+04   -3.71326e+02   -1.07400e+05    2.43113e+02
      Potential    Kinetic En.   Total Energy  Conserved En.    Temperature
   -8.48974e+04    1.89444e+04   -6.59530e+04   -6.81736e+04    2.99743e+02
 Pres. DC (bar) Pressure (bar)   Constr. rmsd
   -9.56209e+01   -3.95029e+01    0.00000e+00

          Box-X          Box-Y          Box-Z
    4.01080e+00    4.01080e+00    4.01080e+00

   Total Virial (kJ/mol)
    6.38045e+03    2.01373e+00   -7.00043e+00
    2.01427e+00    6.39468e+03    9.93049e+00
   -7.00077e+00    9.92952e+00    6.39569e+03

   Pressure (bar)
   -3.57114e+01   -1.94112e+00   -3.00119e+00
   -1.94139e+00   -4.14445e+01   -5.26808e+00
   -3.00102e+00   -5.26758e+00   -4.13528e+01

      T-Protein  T-non-Protein
    2.99122e+02    2.99775e+02
